L-serine conf1
  Mrv0541 03151216143D               4.05095

 14 13  0  0  1  0            999 V2000
    1.5875   -0.0323   -0.4819 N   0  0  0  0  0  0  0  0  0  0  0  0
    0.1257    0.0260   -0.4730 C   0  0  2  0  0  0  0  0  0  0  0  0
   -0.3604   -1.0707    0.4550 C   0  0  0  0  0  0  0  0  0  0  0  0
    0.3327   -1.9292    0.9829 O   0  0  0  0  0  0  0  0  0  0  0  0
   -0.4049   -0.1713   -1.8918 C   0  0  0  0  0  0  0  0  0  0  0  0
   -1.7079    0.3888   -2.0064 O   0  0  0  0  0  0  0  0  0  0  0  0
   -1.7025   -0.9874    0.6424 O   0  0  0  0  0  0  0  0  0  0  0  0
    1.9596    0.7384   -1.0354 H   0  0  0  0  0  0  0  0  0  0  0  0
    1.8886   -0.8869   -0.9506 H   0  0  0  0  0  0  0  0  0  0  0  0
   -0.1855    0.9946   -0.0640 H   0  0  0  0  0  0  0  0  0  0  0  0
   -0.4511   -1.2313   -2.1660 H   0  0  0  0  0  0  0  0  0  0  0  0
    0.2270    0.3368   -2.6283 H   0  0  0  0  0  0  0  0  0  0  0  0
   -2.3315   -0.2473   -1.6167 H   0  0  0  0  0  0  0  0  0  0  0  0
   -2.0357   -1.7450    1.1698 H   0  0  0  0  0  0  0  0  0  0  0  0
  2  1  1  0  0  0  0
  1  8  1  0  0  0  0
  1  9  1  0  0  0  0
  2  3  1  0  0  0  0
  2  5  1  0  0  0  0
  2 10  1  0  0  0  0
  3  4  2  0  0  0  0
  3  7  1  0  0  0  0
  5  6  1  0  0  0  0
  5 11  1  0  0  0  0
  5 12  1  0  0  0  0
  6 13  1  0  0  0  0
  7 14  1  0  0  0  0
M  END

$$$$
L-serine conf1 small change
  Mrv0541 03151216153D               4.05095

 14 13  0  0  1  0            999 V2000
    1.3660   -6.2718    0.2370 N   0  0  0  0  0  0  0  0  0  0  0  0
   -0.0958   -6.2135    0.2459 C   0  0  2  0  0  0  0  0  0  0  0  0
   -0.0594   -7.0352    1.1739 C   0  0  0  0  0  0  0  0  0  0  0  0
    0.5237   -8.0312    1.7018 O   0  0  0  0  0  0  0  0  0  0  0  0
   -0.6264   -6.4108   -1.1729 C   0  0  0  0  0  0  0  0  0  0  0  0
   -1.9294   -5.8507   -1.2875 O   0  0  0  0  0  0  0  0  0  0  0  0
   -1.9240   -7.2269    1.3613 O   0  0  0  0  0  0  0  0  0  0  0  0
    1.7381   -5.5011   -0.3165 H   0  0  0  0  0  0  0  0  0  0  0  0
    1.6671   -7.1264   -0.2317 H   0  0  0  0  0  0  0  0  0  0  0  0
   -0.4070   -5.2449    0.6549 H   0  0  0  0  0  0  0  0  0  0  0  0
   -0.6726   -7.4708   -1.4471 H   0  0  0  0  0  0  0  0  0  0  0  0
    0.0055   -5.9027   -1.9094 H   0  0  0  0  0  0  0  0  0  0  0  0
   -2.5530   -6.4868   -0.8978 H   0  0  0  0  0  0  0  0  0  0  0  0
   -2.2572   -7.9845    1.8887 H   0  0  0  0  0  0  0  0  0  0  0  0
  2  1  1  0  0  0  0
  1  8  1  0  0  0  0
  1  9  1  0  0  0  0
  2  3  1  0  0  0  0
  2  5  1  0  0  0  0
  2 10  1  0  0  0  0
  3  4  2  0  0  0  0
  3  7  1  0  0  0  0
  5  6  1  0  0  0  0
  5 11  1  0  0  0  0
  5 12  1  0  0  0  0
  6 13  1  0  0  0  0
  7 14  1  0  0  0  0
M  END

$$$$
L-serine conf1 bigger change
  Mrv0541 03151216153D               4.05095

 14 13  0  0  1  0            999 V2000
    1.4642  -11.4163    0.2370 N   0  0  0  0  0  0  0  0  0  0  0  0
    0.0024  -11.3580    0.2459 C   0  0  2  0  0  0  0  0  0  0  0  0
    0.4238  -12.0697    1.1739 C   0  0  0  0  0  0  0  0  0  0  0  0
    1.1169  -12.9832    1.7018 O   0  0  0  0  0  0  0  0  0  0  0  0
   -0.5282  -11.5553   -1.1729 C   0  0  0  0  0  0  0  0  0  0  0  0
   -1.8312  -10.9952   -1.2875 O   0  0  0  0  0  0  0  0  0  0  0  0
   -0.7808  -12.7014    1.3613 O   0  0  0  0  0  0  0  0  0  0  0  0
    1.8363  -10.6456   -0.3165 H   0  0  0  0  0  0  0  0  0  0  0  0
    1.7653  -12.2709   -0.2317 H   0  0  0  0  0  0  0  0  0  0  0  0
   -0.3088  -10.3894    0.6549 H   0  0  0  0  0  0  0  0  0  0  0  0
   -0.5744  -12.6153   -1.4471 H   0  0  0  0  0  0  0  0  0  0  0  0
    0.1037  -11.0472   -1.9094 H   0  0  0  0  0  0  0  0  0  0  0  0
   -2.4548  -11.6313   -0.8978 H   0  0  0  0  0  0  0  0  0  0  0  0
   -1.4440  -13.5415    1.8887 H   0  0  0  0  0  0  0  0  0  0  0  0
  2  1  1  0  0  0  0
  1  8  1  0  0  0  0
  1  9  1  0  0  0  0
  2  3  1  0  0  0  0
  2  5  1  0  0  0  0
  2 10  1  0  0  0  0
  3  4  2  0  0  0  0
  3  7  1  0  0  0  0
  5  6  1  0  0  0  0
  5 11  1  0  0  0  0
  5 12  1  0  0  0  0
  6 13  1  0  0  0  0
  7 14  1  0  0  0  0
M  END

$$$$
L-serine conf1 duplicate
  Mrv0541 03151216143D               4.05095

 14 13  0  0  1  0            999 V2000
    1.5875   -0.0323   -0.4819 N   0  0  0  0  0  0  0  0  0  0  0  0
    0.1257    0.0260   -0.4730 C   0  0  2  0  0  0  0  0  0  0  0  0
   -0.3604   -1.0707    0.4550 C   0  0  0  0  0  0  0  0  0  0  0  0
    0.3327   -1.9292    0.9829 O   0  0  0  0  0  0  0  0  0  0  0  0
   -0.4049   -0.1713   -1.8918 C   0  0  0  0  0  0  0  0  0  0  0  0
   -1.7079    0.3888   -2.0064 O   0  0  0  0  0  0  0  0  0  0  0  0
   -1.7025   -0.9874    0.6424 O   0  0  0  0  0  0  0  0  0  0  0  0
    1.9596    0.7384   -1.0354 H   0  0  0  0  0  0  0  0  0  0  0  0
    1.8886   -0.8869   -0.9506 H   0  0  0  0  0  0  0  0  0  0  0  0
   -0.1855    0.9946   -0.0640 H   0  0  0  0  0  0  0  0  0  0  0  0
   -0.4511   -1.2313   -2.1660 H   0  0  0  0  0  0  0  0  0  0  0  0
    0.2270    0.3368   -2.6283 H   0  0  0  0  0  0  0  0  0  0  0  0
   -2.3315   -0.2473   -1.6167 H   0  0  0  0  0  0  0  0  0  0  0  0
   -2.0357   -1.7450    1.1698 H   0  0  0  0  0  0  0  0  0  0  0  0
  2  1  1  0  0  0  0
  1  8  1  0  0  0  0
  1  9  1  0  0  0  0
  2  3  1  0  0  0  0
  2  5  1  0  0  0  0
  2 10  1  0  0  0  0
  3  4  2  0  0  0  0
  3  7  1  0  0  0  0
  5  6  1  0  0  0  0
  5 11  1  0  0  0  0
  5 12  1  0  0  0  0
  6 13  1  0  0  0  0
  7 14  1  0  0  0  0
M  END

$$$$
L-serine conf1 bigger change duplicate
  Mrv0541 03151216153D               4.05095

 14 13  0  0  1  0            999 V2000
    1.4642  -11.4163    0.2370 N   0  0  0  0  0  0  0  0  0  0  0  0
    0.0024  -11.3580    0.2459 C   0  0  2  0  0  0  0  0  0  0  0  0
    0.4238  -12.0697    1.1739 C   0  0  0  0  0  0  0  0  0  0  0  0
    1.1169  -12.9832    1.7018 O   0  0  0  0  0  0  0  0  0  0  0  0
   -0.5282  -11.5553   -1.1729 C   0  0  0  0  0  0  0  0  0  0  0  0
   -1.8312  -10.9952   -1.2875 O   0  0  0  0  0  0  0  0  0  0  0  0
   -0.7808  -12.7014    1.3613 O   0  0  0  0  0  0  0  0  0  0  0  0
    1.8363  -10.6456   -0.3165 H   0  0  0  0  0  0  0  0  0  0  0  0
    1.7653  -12.2709   -0.2317 H   0  0  0  0  0  0  0  0  0  0  0  0
   -0.3088  -10.3894    0.6549 H   0  0  0  0  0  0  0  0  0  0  0  0
   -0.5744  -12.6153   -1.4471 H   0  0  0  0  0  0  0  0  0  0  0  0
    0.1037  -11.0472   -1.9094 H   0  0  0  0  0  0  0  0  0  0  0  0
   -2.4548  -11.6313   -0.8978 H   0  0  0  0  0  0  0  0  0  0  0  0
   -1.4440  -13.5415    1.8887 H   0  0  0  0  0  0  0  0  0  0  0  0
  2  1  1  0  0  0  0
  1  8  1  0  0  0  0
  1  9  1  0  0  0  0
  2  3  1  0  0  0  0
  2  5  1  0  0  0  0
  2 10  1  0  0  0  0
  3  4  2  0  0  0  0
  3  7  1  0  0  0  0
  5  6  1  0  0  0  0
  5 11  1  0  0  0  0
  5 12  1  0  0  0  0
  6 13  1  0  0  0  0
  7 14  1  0  0  0  0
M  END

$$$$
L-serine conf1 bigger change small change
  Mrv0541 03151216153D               4.05095

 14 13  0  0  1  0            999 V2000
    1.4642  -11.4163    0.2370 N   0  0  0  0  0  0  0  0  0  0  0  0
    0.0024  -11.3580    0.2459 C   0  0  2  0  0  0  0  0  0  0  0  0
    0.4238  -12.0697    1.1739 C   0  0  0  0  0  0  0  0  0  0  0  0
    1.1169  -12.9832    1.7018 O   0  0  0  0  0  0  0  0  0  0  0  0
   -0.5282  -11.5553   -1.1729 C   0  0  0  0  0  0  0  0  0  0  0  0
   -1.8312  -10.9952   -1.2875 O   0  0  0  0  0  0  0  0  0  0  0  0
   -0.7808  -12.7014    1.3613 O   0  0  0  0  0  0  0  0  0  0  0  0
    1.8363  -10.6456   -0.3165 H   0  0  0  0  0  0  0  0  0  0  0  0
    1.7653  -12.2709   -0.2317 H   0  0  0  0  0  0  0  0  0  0  0  0
   -0.3088  -10.3894    0.6549 H   0  0  0  0  0  0  0  0  0  0  0  0
   -0.5744  -12.6153   -1.4471 H   0  0  0  0  0  0  0  0  0  0  0  0
    0.1037  -11.0472   -1.9094 H   0  0  0  0  0  0  0  0  0  0  0  0
   -2.4548  -11.6313   -0.8978 H   0  0  0  0  0  0  0  0  0  0  0  0
   -1.4440  -12.5415    1.8887 H   0  0  0  0  0  0  0  0  0  0  0  0
  2  1  1  0  0  0  0
  1  8  1  0  0  0  0
  1  9  1  0  0  0  0
  2  3  1  0  0  0  0
  2  5  1  0  0  0  0
  2 10  1  0  0  0  0
  3  4  2  0  0  0  0
  3  7  1  0  0  0  0
  5  6  1  0  0  0  0
  5 11  1  0  0  0  0
  5 12  1  0  0  0  0
  6 13  1  0  0  0  0
  7 14  1  0  0  0  0
M  END

$$$$
L-serine conf1 small change 2
  Mrv0541 03151216143D               4.05095

 14 13  0  0  1  0            999 V2000
    1.5875   -0.0323   -0.4819 N   0  0  0  0  0  0  0  0  0  0  0  0
    0.1257    0.0260   -0.4730 C   0  0  2  0  0  0  0  0  0  0  0  0
   -0.3604   -1.0707    0.4550 C   0  0  0  0  0  0  0  0  0  0  0  0
    0.3327   -1.9292    0.9829 O   0  0  0  0  0  0  0  0  0  0  0  0
   -0.4049   -0.1713   -1.8918 C   0  0  0  0  0  0  0  0  0  0  0  0
   -1.0000    0.3888   -2.0064 O   0  0  0  0  0  0  0  0  0  0  0  0
   -1.7025   -0.9874    0.6424 O   0  0  0  0  0  0  0  0  0  0  0  0
    1.9596    0.7384   -1.0354 H   0  0  0  0  0  0  0  0  0  0  0  0
    1.8886   -0.8869   -0.9506 H   0  0  0  0  0  0  0  0  0  0  0  0
   -0.1855    0.9946   -0.0640 H   0  0  0  0  0  0  0  0  0  0  0  0
   -0.4511   -1.2313   -2.1660 H   0  0  0  0  0  0  0  0  0  0  0  0
    0.2270    0.3368   -2.6283 H   0  0  0  0  0  0  0  0  0  0  0  0
   -2.3315   -0.2473   -1.6167 H   0  0  0  0  0  0  0  0  0  0  0  0
   -2.0357   -1.7450    1.1698 H   0  0  0  0  0  0  0  0  0  0  0  0
  2  1  1  0  0  0  0
  1  8  1  0  0  0  0
  1  9  1  0  0  0  0
  2  3  1  0  0  0  0
  2  5  1  0  0  0  0
  2 10  1  0  0  0  0
  3  4  2  0  0  0  0
  3  7  1  0  0  0  0
  5  6  1  0  0  0  0
  5 11  1  0  0  0  0
  5 12  1  0  0  0  0
  6 13  1  0  0  0  0
  7 14  1  0  0  0  0
M  END

$$$$